&coupler_nml
cpuATM=$cpuATM,
cpuOCN=$cpuOCN,
debugLevel=0,
coupleMode=2,
/
